Version 4
SHEET 1 3316 1732
WIRE -80 -96 -112 -96
WIRE 64 -96 0 -96
WIRE 96 -96 64 -96
WIRE 304 -96 176 -96
WIRE 608 -96 496 -96
WIRE 1216 -96 608 -96
WIRE 608 -80 608 -96
WIRE 1216 -48 1216 -96
WIRE 1216 -48 1168 -48
WIRE 752 -32 720 -32
WIRE 912 -32 832 -32
WIRE 1104 -32 912 -32
WIRE 912 -16 912 -32
WIRE 1296 -16 1168 -16
WIRE 1504 -16 1376 -16
WIRE 912 0 912 -16
WIRE 64 48 64 -96
WIRE 176 48 144 48
WIRE 304 48 304 0
WIRE 304 48 240 48
WIRE 720 48 720 -32
WIRE 912 48 720 48
WIRE 720 64 720 48
WIRE 304 96 304 48
WIRE 496 96 496 0
WIRE 608 96 608 0
WIRE 1296 96 1296 -16
WIRE 1296 96 608 96
FLAG 304 96 0
FLAG -112 -96 0
FLAG 720 64 0
FLAG 496 96 0
FLAG 1584 -16 0
DATAFLAG 1216 -16 ""
SYMBOL voltage 16 -96 R90
WINDOW 123 0 0 Left 0
WINDOW 39 0 0 Left 0
SYMATTR InstName ESP32
SYMATTR Value PULSE(0 3.3 0 1n 0 10m 20m)
SYMBOL res 592 -96 R0
SYMATTR InstName R1
SYMATTR Value 10k
SYMBOL res 192 -112 R90
WINDOW 0 0 56 VBottom 2
WINDOW 3 32 56 VTop 2
SYMATTR InstName R8
SYMATTR Value 330
SYMBOL res 848 -48 R90
WINDOW 0 0 56 VBottom 2
WINDOW 3 32 56 VTop 2
SYMATTR InstName BAT1
SYMATTR Value 120
SYMATTR SpiceLine pwr=5
SYMBOL Optos\\PC817B 400 -48 R0
SYMATTR InstName U1
SYMBOL schottky 928 48 R180
WINDOW 0 24 64 Left 2
WINDOW 3 24 0 Left 2
SYMATTR InstName D1
SYMATTR Value 1N5408
SYMATTR Description Diode
SYMATTR Type diode
SYMBOL voltage 1488 -16 R270
WINDOW 123 0 0 Left 0
WINDOW 39 0 0 Left 0
SYMATTR InstName V1
SYMATTR Value 12
SYMBOL AutoGenerated\\irf4905 1136 -32 R0
SYMATTR InstName U4
SYMBOL res 1392 -32 R90
WINDOW 0 0 56 VBottom 2
WINDOW 3 32 56 VTop 2
SYMATTR InstName INA226
SYMATTR Value 10m
SYMBOL res 160 32 R90
WINDOW 0 0 56 VBottom 2
WINDOW 3 32 56 VTop 2
SYMATTR InstName R2
SYMATTR Value 330
SYMBOL LED 176 64 R270
WINDOW 0 72 32 VTop 2
WINDOW 3 0 32 VBottom 2
SYMATTR InstName D2
TEXT -472 -216 Left 2 !.tran 0.1
TEXT -184 -272 Left 2 !.model 1N5408 D(IS=5e-08 RS=0.044 N=1.5 BV=1000 IBV=5e-08 CJO=4e-11 TT=3e-06)
